omf/scratch/gosedPrototypes/OrvilleTreePond.glm
clock {
	timezone PST+8PDT;
	starttime '2000-01-01 00:00:00';
	stoptime '2000-01-01 00:00:00';
};

#set minimum_timestep=60;
#set profiler=1;
#set relax_naming_rules=1;
module generators;
module tape;
module residential {
	implicit_enduses NONE;
};

module powerflow {
	solver_method NR;
	NR_iteration_limit 50;
};

object node {
	phases ABCN;
	name ARBOR LAKE;
	bustype SWING;
	longitude 174.153420871;
	nominal_voltage 7200.0;
	latitude 619.113798394;
};

object underground_line {
	phases ACB;
	from ARBOR LAKE;
	name 1069647;
	longitude 174.890578208;
	to nodeD956171069647;
	length 19;
	latitude 617.056222363;
	configuration 1151929-LINECONFIG;
};

object fuse {
	phases ACB;
	from nodeD956171069647;
	name D95617;
	current_limit 9999.0 A;
	longitude 174.890578208;
	to node1077548D95617;
	latitude 617.056222363;
};

object underground_line {
	phases ACB;
	from node1077548D95617;
	name 1077548;
	longitude 174.890578208;
	to node11005201077548;
	length 10;
	latitude 616.298168035;
	configuration 1151929-LINECONFIG;
};

object underground_line {
	phases ACB;
	from node11005201077548;
	name 1100520;
	to node95881-B1100520;
	longitude 196.452430316;
	length 308;
	latitude 622.579189604;
	configuration 1151929-LINECONFIG;
};

object switch {
	status CLOSED;
	phases ACB;
	from node95881-B1100520;
	name 95881-B;
	longitude 196.452430316;
	to node95881-A95881-B;
	latitude 622.579189604;
};

object switch {
	status CLOSED;
	phases ACB;
	from node95881-A95881-B;
	name 95881-A;
	longitude 196.452430316;
	to node110052195881-A;
	latitude 622.579189604;
};

object underground_line {
	phases ACB;
	from node110052195881-A;
	name 1100521;
	longitude 196.821008984;
	to node10740441100521;
	length 10;
	latitude 622.362602653;
	configuration 1151929-LINECONFIG;
};

object underground_line {
	phases ACB;
	from node10740441100521;
	name 1074044;
	longitude 197.742455655;
	to node94914-A1074044;
	length 28;
	latitude 625.178233011;
	configuration 1151929-LINECONFIG;
};

object underground_line {
	phases ACB;
	from node10740441100521;
	name 1074052;
	longitude 197.92674499;
	to node95154-A1074052;
	length 25;
	latitude 619.763559246;
	configuration 1151929-LINECONFIG;
};

object underground_line {
	phases ACB;
	from node10740441100521;
	name 1100523;
	to node96360-B1100523;
	longitude 197.373876987;
	length 10;
	latitude 622.037722227;
	configuration 1151929-LINECONFIG;
};

object switch {
	status CLOSED;
	phases ACB;
	from node96360-B1100523;
	name 96360-B;
	longitude 197.373876987;
	to node96360-A96360-B;
	latitude 622.037722227;
};

object switch {
	status CLOSED;
	phases ACB;
	from node96360-A96360-B;
	name 96360-A;
	longitude 197.373876987;
	to node110052496360-A;
	latitude 622.037722227;
};

object underground_line {
	phases ACB;
	from node110052496360-A;
	name 1100524;
	longitude 363.971435153;
	to node95667-B1100524;
	length 1230;
	latitude 649.869145384;
	configuration 1151929-LINECONFIG;
};

object switch {
	status CLOSED;
	phases ACB;
	from node95667-B1100524;
	name 95667-B;
	longitude 363.971435153;
	to node95667-A95667-B;
	latitude 649.869145384;
};

object switch {
	status CLOSED;
	phases ACB;
	from node95667-A95667-B;
	name 95667-A;
	longitude 363.971435153;
	to node110005995667-A;
	latitude 649.869145384;
};

object underground_line {
	phases ACB;
	from node110005995667-A;
	name 1100059;
	longitude 364.524303156;
	to node11000811100059;
	length 10;
	latitude 649.652558433;
	configuration 1151929-LINECONFIG;
};

object underground_line {
	phases ACB;
	from node11000811100059;
	name 1100081;
	longitude 364.340013822;
	to node96224-B1100081;
	length 10;
	latitude 650.085732335;
	configuration 1151929-LINECONFIG;
};

object switch {
	status CLOSED;
	phases ACB;
	from node96224-B1100081;
	name 96224-B;
	longitude 364.340013822;
	to node96224-A96224-B;
	latitude 650.085732335;
};

object switch {
	status CLOSED;
	phases ACB;
	from node96224-A96224-B;
	name 96224-A;
	longitude 364.340013822;
	to node110075296224-A;
	latitude 650.085732335;
};

object underground_line {
	phases ACB;
	from node110075296224-A;
	name 1100752;
	longitude 668.048836674;
	to node95990-B1100752;
	length 1676;
	latitude 666.979514484;
	configuration 1151929-LINECONFIG;
};

object switch {
	status CLOSED;
	phases ACB;
	from node95990-B1100752;
	name 95990-B;
	longitude 668.048836674;
	to node95990-A95990-B;
	latitude 666.979514484;
};

object switch {
	status CLOSED;
	phases ACB;
	from node95990-A95990-B;
	name 95990-A;
	longitude 668.048836674;
	to node110075395990-A;
	latitude 666.979514484;
};

object underground_line {
	phases ACB;
	from node110075395990-A;
	name 1100753;
	longitude 668.417415342;
	to node11007551100753;
	length 10;
	latitude 666.979514484;
	configuration 1151929-LINECONFIG;
};

object underground_line {
	phases ACB;
	from node11007551100753;
	name 1100755;
	longitude 670.628887353;
	to nodeR963981100755;
	length 21;
	latitude 665.138525404;
	configuration 1094591-LINECONFIG;
};

object fuse {
	phases ACB;
	from nodeR963981100755;
	name R96398;
	current_limit 9999.0 A;
	longitude 670.628887353;
	to node1100754R96398;
	latitude 665.138525404;
};

object underground_line {
	phases ACB;
	from node1100754R96398;
	name 1100754;
	to node10944981100754;
	longitude 676.894724718;
	length 501;
	latitude 617.056222363;
	configuration 1094591-LINECONFIG;
};

object underground_line {
	phases ACB;
	from node10944981100754;
	name 1094498;
	longitude 637.456807187;
	to node10944971094498;
	length 901;
	latitude 542.442017868;
	configuration 1094591-LINECONFIG;
};

object underground_line {
	phases ACB;
	from node10944971094498;
	name 1094497;
	longitude 571.29693619;
	to node10944951094497;
	length 785;
	latitude 487.104051981;
	configuration 1094591-LINECONFIG;
};

object underground_line {
	phases ACB;
	from node10944951094497;
	name 1094495;
	longitude 543.837825386;
	to node11022481094495;
	length 357;
	latitude 463.06290046;
	configuration 1094591-LINECONFIG;
};

object underground_line {
	phases ACB;
	from node11022481094495;
	name 1102248;
	longitude 538.862013361;
	to node96061-A1102248;
	length 185;
	latitude 457.215052793;
	configuration 1094591-LINECONFIG;
};

object underground_line {
	phases ACB;
	from node11007551100753;
	name 1100758;
	longitude 666.390232665;
	to nodeR963991100758;
	length 17;
	latitude 665.788286256;
	configuration 1094591-LINECONFIG;
};

object fuse {
	phases ACB;
	from nodeR963991100758;
	name R96399;
	current_limit 9999.0 A;
	longitude 666.390232665;
	to node1100756R96399;
	latitude 665.788286256;
};

object underground_line {
	phases ACB;
	from node1100756R96399;
	name 1100756;
	longitude 666.758811334;
	to node10946511100756;
	length 44;
	latitude 661.131666817;
	configuration 1094591-LINECONFIG;
};

object underground_line {
	phases ACB;
	from node10946511100756;
	name 1094651;
	to node10945921094651;
	longitude 555.816632112;
	length 1262;
	latitude 595.722407725;
	configuration 1094591-LINECONFIG;
};

object underground_line {
	phases ACB;
	from node10945921094651;
	name 1094592;
	longitude 522.275973278;
	to node10945911094592;
	length 671;
	latitude 654.525764823;
	configuration 1094591-LINECONFIG;
};

object line_configuration {
	name 1094591-LINECONFIG;
	conductor_A 1085565-LINECONFIGunderground_line_conductor57303;
	spacing 1085257-LINESPACING;
	conductor_C 1085565-LINECONFIGunderground_line_conductor57303;
	conductor_B 1085565-LINECONFIGunderground_line_conductor57303;
};

object underground_line {
	phases ACB;
	from node10945911094592;
	name 1094591;
	longitude 506.611379866;
	to node11013091094591;
	length 110;
	latitude 651.926721415;
	configuration 1094591-LINECONFIG;
};

object underground_line {
	phases ACB;
	from node11013091094591;
	name 1101309;
	longitude 479.152269062;
	to node11012991101309;
	length 167;
	latitude 652.359895316;
	configuration 1094591-LINECONFIG;
};

object underground_line {
	phases ACB;
	from node11012991101309;
	name 1101299;
	longitude 405.989403363;
	to node95259-A1101299;
	length 510;
	latitude 638.606623951;
	configuration 1094591-LINECONFIG;
};

object underground_line {
	phases ACB;
	from node11007551100753;
	name 1104457;
	longitude 669.338862013;
	to node98664-B1104457;
	length 10;
	latitude 667.954155762;
	configuration 1151929-LINECONFIG;
};

object switch {
	status CLOSED;
	phases ACB;
	from node98664-B1104457;
	name 98664-B;
	longitude 669.338862013;
	to node98664-A98664-B;
	latitude 667.954155762;
};

object switch {
	status CLOSED;
	phases ACB;
	from node98664-A98664-B;
	name 98664-A;
	longitude 669.338862013;
	to node110445598664-A;
	latitude 667.954155762;
};

object underground_line {
	phases ACB;
	from node110445598664-A;
	name 1104455;
	longitude 720.387007602;
	to node102921-A1104455;
	length 349;
	latitude 677.375688115;
	configuration 1151929-LINECONFIG;
};

object underground_line {
	phases ACB;
	from node11000811100059;
	name 1100121;
	longitude 364.892881824;
	to nodeR962031100121;
	length 10;
	latitude 649.435971483;
	configuration 1094591-LINECONFIG;
};

object fuse {
	phases ACB;
	from nodeR962031100121;
	name R96203;
	current_limit 9999.0 A;
	longitude 364.892881824;
	to node1100122R96203;
	latitude 649.435971483;
};

object underground_line {
	phases ACB;
	from node1100122R96203;
	name 1100122;
	longitude 365.077171159;
	to node10726521100122;
	length 10;
	latitude 649.327678007;
	configuration 1094591-LINECONFIG;
};

object underground_line {
	phases ACB;
	from node10726521100122;
	name 1100080;
	longitude 389.587652615;
	to node10945751100080;
	length 199;
	latitude 649.977438859;
	configuration 1094591-LINECONFIG;
};

object underground_line {
	phases ACB;
	from node10945751100080;
	name 1094575;
	longitude 398.249251325;
	to node10942471094575;
	length 224;
	latitude 635.249526216;
	configuration 1094591-LINECONFIG;
};

object underground_line {
	phases ACB;
	from node10942471094575;
	name 1094247;
	longitude 405.989403363;
	to node95259-B1094247;
	length 68;
	latitude 638.606623951;
	configuration 1094591-LINECONFIG;
};

object underground_line {
	phases ACB;
	from node11000811100059;
	name 1100134;
	longitude 363.049988482;
	to nodeR962041100134;
	length 10;
	latitude 650.085732335;
	configuration 1094591-LINECONFIG;
};

object fuse {
	phases ACB;
	from nodeR962041100134;
	name R96204;
	current_limit 9999.0 A;
	longitude 363.049988482;
	to node1100133R96204;
	latitude 650.085732335;
};

object underground_line {
	phases ACB;
	from node1100133R96204;
	name 1100133;
	to node11549841100133;
	longitude 342.041004377;
	length 324;
	latitude 626.910928617;
	configuration 1094591-LINECONFIG;
};

object underground_line {
	phases ACB;
	from node11549841100133;
	name 1154984;
	longitude 356.415572449;
	to node11549831154984;
	length 80;
	latitude 626.36946124;
	configuration 1094591-LINECONFIG;
};

object underground_line {
	phases ACB;
	from node11549831154984;
	name 1154983;
	longitude 342.041004377;
	to node11549791154983;
	length 81;
	latitude 625.069939536;
	configuration 1094591-LINECONFIG;
};

object underground_line {
	phases ACB;
	from node11549791154983;
	name 1154979;
	longitude 353.282653766;
	to node10942501154979;
	length 305;
	latitude 598.104864182;
	configuration 1094591-LINECONFIG;
};

object underground_line {
	phases ACB;
	from node10942501154979;
	name 1094250;
	longitude 345.542501728;
	to node10942491094250;
	length 405;
	latitude 562.692897753;
	configuration 1094591-LINECONFIG;
};

object underground_line {
	phases ACB;
	from node10942491094250;
	name 1094249;
	longitude 353.098364432;
	to node10944761094249;
	length 399;
	latitude 531.179496435;
	configuration 1094591-LINECONFIG;
};

object underground_line {
	phases ACB;
	from node10944761094249;
	name 1094476;
	longitude 393.826307302;
	to node10944751094476;
	length 221;
	latitude 529.44680083;
	configuration 1094591-LINECONFIG;
};

object underground_line {
	phases ACB;
	from node10944751094476;
	name 1094475;
	longitude 431.052752822;
	to node11163741094475;
	length 204;
	latitude 532.262431189;
	configuration 1094591-LINECONFIG;
};

object underground_line {
	phases ACB;
	from node11163741094475;
	name 1116374;
	to node101341-B1116374;
	longitude 436.58143285;
	length 30;
	latitude 532.803898565;
	configuration 1094591-LINECONFIG;
};

object underground_line {
	phases ACB;
	from ARBOR LAKE;
	name 1069649;
	to nodeF956161069649;
	longitude 173.2319742;
	length 19;
	latitude 617.056222363;
	configuration 1151929-LINECONFIG;
};

object fuse {
	phases ACB;
	from nodeF956161069649;
	name F95616;
	current_limit 9999.0 A;
	longitude 173.2319742;
	to node1077546F95616;
	latitude 617.056222363;
};

object underground_line {
	phases ACB;
	from node1077546F95616;
	name 1077546;
	longitude 173.2319742;
	to node10775471077546;
	length 10;
	latitude 616.298168035;
	configuration 1151929-LINECONFIG;
};

object underground_line {
	phases ACB;
	from node10775471077546;
	name 1077547;
	longitude 173.416263534;
	to node11005901077547;
	length 10;
	latitude 615.648407183;
	configuration 1151929-LINECONFIG;
};

object underground_line {
	phases ACB;
	from node11005901077547;
	name 1100590;
	longitude 195.715272979;
	to node96361-A1100590;
	length 274;
	latitude 617.922570165;
	configuration 1151929-LINECONFIG;
};

object underground_line {
	phases ACB;
	from ARBOR LAKE;
	name 1069650;
	longitude 171.757659525;
	to nodeF956151069650;
	length 23;
	latitude 617.056222363;
	configuration 1151929-LINECONFIG;
};

object fuse {
	phases ACB;
	from nodeF956151069650;
	name F95615;
	current_limit 9999.0 A;
	longitude 171.757659525;
	to node1077544F95615;
	latitude 617.056222363;
};

object underground_line {
	phases ACB;
	from node1077544F95615;
	name 1077544;
	to node11005921077544;
	longitude 171.757659525;
	length 10;
	latitude 616.18987456;
	configuration 1151929-LINECONFIG;
};

object underground_line {
	phases ACB;
	from node11005921077544;
	name 1100592;
	longitude 197.373876987;
	to node95883-B1100592;
	length 259;
	latitude 611.966429023;
	configuration 1151929-LINECONFIG;
};

object switch {
	status CLOSED;
	phases ACB;
	from node95883-B1100592;
	name 95883-B;
	longitude 197.373876987;
	to node95883-A95883-B;
	latitude 611.966429023;
};

object switch {
	status CLOSED;
	phases ACB;
	from node95883-A95883-B;
	name 95883-A;
	longitude 197.373876987;
	to node110059395883-A;
	latitude 611.966429023;
};

object underground_line {
	phases ACB;
	from node110059395883-A;
	name 1100593;
	longitude 197.92674499;
	to node10740461100593;
	length 10;
	latitude 612.183015973;
	configuration 1151929-LINECONFIG;
};

object underground_line {
	phases ACB;
	from node10740461100593;
	name 1074046;
	longitude 196.268140981;
	to node94920-B1074046;
	length 24;
	latitude 614.240592004;
	configuration 1151929-LINECONFIG;
};

object underground_line {
	phases ACB;
	from node10740461100593;
	name 1074047;
	longitude 198.848191661;
	to node94921-B1074047;
	length 25;
	latitude 609.583972566;
	configuration 1151929-LINECONFIG;
};

object underground_line {
	phases ACB;
	from node10740461100593;
	name 1100594;
	longitude 198.295323658;
	to node96362-B1100594;
	length 10;
	latitude 612.399602924;
	configuration 1151929-LINECONFIG;
};

object switch {
	status CLOSED;
	phases ACB;
	from node96362-B1100594;
	name 96362-B;
	longitude 198.295323658;
	to node96362-A96362-B;
	latitude 612.399602924;
};

object switch {
	status CLOSED;
	phases ACB;
	from node96362-A96362-B;
	name 96362-A;
	longitude 198.295323658;
	to node110059596362-A;
	latitude 612.399602924;
};

object underground_line {
	phases ACB;
	from node110059596362-A;
	name 1100595;
	longitude 341.119557706;
	to node95690-B1100595;
	length 3552;
	latitude 362.891435791;
	configuration 1151929-LINECONFIG;
};

object switch {
	status CLOSED;
	phases ACB;
	from node95690-B1100595;
	name 95690-B;
	longitude 341.119557706;
	to node95690-A95690-B;
	latitude 362.891435791;
};

object switch {
	status CLOSED;
	phases ACB;
	from node95690-A95690-B;
	name 95690-A;
	longitude 341.119557706;
	to node110016795690-A;
	latitude 362.891435791;
};

object underground_line {
	phases ACB;
	from node110016795690-A;
	name 1100167;
	longitude 341.30384704;
	to node10757451100167;
	length 10;
	latitude 362.67484884;
	configuration 1151929-LINECONFIG;
};

object underground_line {
	phases ACB;
	from node10757451100167;
	name 1075745;
	to node95124-A1075745;
	longitude 344.252476388;
	length 61;
	latitude 367.76464218;
	configuration 1100101-LINECONFIG;
};

object underground_line {
	phases ACB;
	from node10757451100167;
	name 1078947;
	longitude 343.883897719;
	to nodeR928831078947;
	length 23;
	latitude 360.725566285;
	configuration 1085257-LINECONFIG;
};

object fuse {
	phases ACB;
	from nodeR928831078947;
	name R92883;
	current_limit 9999.0 A;
	longitude 343.883897719;
	to node1091470R92883;
	latitude 360.725566285;
};

object underground_line {
	phases ACB;
	from node1091470R92883;
	name 1091470;
	longitude 358.258465791;
	to node10914711091470;
	length 104;
	latitude 367.439761754;
	configuration 1085257-LINECONFIG;
};

object underground_line {
	phases ACB;
	from node10914711091470;
	name 1091471;
	longitude 419.995392767;
	to node10914581091471;
	length 803;
	latitude 339.066871221;
	configuration 1085257-LINECONFIG;
};

object underground_line {
	phases ACB;
	from node10914581091471;
	name 1091458;
	longitude 420.916839438;
	to node10914571091458;
	length 488;
	latitude 297.157296273;
	configuration 1085257-LINECONFIG;
};

object underground_line {
	phases ACB;
	from node10914571091458;
	name 1091457;
	longitude 407.095139369;
	to node95130-A1091457;
	length 112;
	latitude 292.284089884;
	configuration 1085257-LINECONFIG;
};

object underground_line {
	phases ACB;
	from node10757451100167;
	name 1100195;
	to node96240-B1100195;
	longitude 341.119557706;
	length 10;
	latitude 362.349968414;
	configuration 1100101-LINECONFIG;
};

object switch {
	status CLOSED;
	phases ACB;
	from node96240-B1100195;
	name 96240-B;
	longitude 341.119557706;
	to node96240-A96240-B;
	latitude 362.349968414;
};

object switch {
	status CLOSED;
	phases ACB;
	from node96240-A96240-B;
	name 96240-A;
	longitude 341.119557706;
	to node110061196240-A;
	latitude 362.349968414;
};

object underground_line {
	phases ACB;
	from node110061196240-A;
	name 1100611;
	longitude 367.28864317;
	to node95912-B1100611;
	length 1149;
	latitude 241.386156484;
	configuration 1100101-LINECONFIG;
};

object switch {
	status CLOSED;
	phases ACB;
	from node95912-B1100611;
	name 95912-B;
	longitude 367.28864317;
	to node95912-A95912-B;
	latitude 241.386156484;
};

object switch {
	status CLOSED;
	phases ACB;
	from node95912-A95912-B;
	name 95912-A;
	longitude 367.28864317;
	to node110060495912-A;
	latitude 241.386156484;
};

object underground_line {
	phases ACB;
	from node110060495912-A;
	name 1100604;
	longitude 367.657221838;
	to node10808451100604;
	length 10;
	latitude 241.061276058;
	configuration 1100101-LINECONFIG;
};

object underground_line {
	phases B;
	from node10808451100604;
	name 1080845;
	longitude 370.237272518;
	to nodeD938711080845;
	length 21.7276;
	latitude 239.328580453;
	configuration 1075245-LINECONFIG;
};

object fuse {
	phases B;
	from nodeD938711080845;
	name D93871;
	current_limit 9999.0 A;
	longitude 370.237272518;
	to node1080846D93871;
	latitude 239.328580453;
};

object underground_line {
	phases B;
	from node1080846D93871;
	name 1080846;
	longitude 371.895876526;
	to node4403841080846;
	length 60.6879;
	latitude 232.830971934;
	configuration 1075245-LINECONFIG;
};

object underground_line {
	phases ACB;
	from node10808451100604;
	name 1100615;
	longitude 365.99861783;
	to node96366-B1100615;
	length 10;
	latitude 241.71103691;
	configuration 1100101-LINECONFIG;
};

object switch {
	status CLOSED;
	phases ACB;
	from node96366-B1100615;
	name 96366-B;
	longitude 365.99861783;
	to node96366-A96366-B;
	latitude 241.71103691;
};

object switch {
	status CLOSED;
	phases ACB;
	from node96366-A96366-B;
	name 96366-A;
	longitude 365.99861783;
	to node110061496366-A;
	latitude 241.71103691;
};

object underground_line {
	phases ACB;
	from node110061496366-A;
	name 1100614;
	longitude 363.234277816;
	to node95646-B1100614;
	length 571;
	latitude 180.850103781;
	configuration 1100101-LINECONFIG;
};

object switch {
	status CLOSED;
	phases ACB;
	from node95646-B1100614;
	name 95646-B;
	longitude 363.234277816;
	to node95646-A95646-B;
	latitude 180.850103781;
};

object switch {
	status CLOSED;
	phases ACB;
	from node95646-A95646-B;
	name 95646-A;
	longitude 363.234277816;
	to node110010295646-A;
	latitude 180.850103781;
};

object underground_line {
	phases ACB;
	from node110010295646-A;
	name 1100102;
	longitude 363.602856485;
	to node10808471100102;
	length 10;
	latitude 180.741810306;
	configuration 1100101-LINECONFIG;
};

object underground_line {
	phases ACB;
	from node10808471100102;
	name 1080847;
	longitude 365.445749827;
	to nodeR938721080847;
	length 21;
	latitude 182.799386337;
	configuration 1085257-LINECONFIG;
};

object fuse {
	phases ACB;
	from nodeR938721080847;
	name R93872;
	current_limit 9999.0 A;
	longitude 365.445749827;
	to node1091454R93872;
	latitude 182.799386337;
};

object underground_line {
	phases ACB;
	from node1091454R93872;
	name 1091454;
	longitude 424.602626123;
	to node10914551091454;
	length 537;
	latitude 206.732244382;
	configuration 1085257-LINECONFIG;
};

object underground_line {
	phases ACB;
	from node10914551091454;
	name 1091455;
	longitude 423.496890118;
	to node10914561091455;
	length 366;
	latitude 242.577384713;
	configuration 1085257-LINECONFIG;
};

object underground_line {
	phases ACB;
	from node10914561091455;
	name 1091456;
	longitude 407.095139369;
	to node95130-B1091456;
	length 487;
	latitude 292.284089884;
	configuration 1085257-LINECONFIG;
};

object underground_line {
	phases ACB;
	from node10808471100102;
	name 1100105;
	longitude 363.234277816;
	to node96212-B1100105;
	length 10;
	latitude 180.741810306;
	configuration 1100101-LINECONFIG;
};

object switch {
	status CLOSED;
	phases ACB;
	from node96212-B1100105;
	name 96212-B;
	longitude 363.234277816;
	to node96212-A96212-B;
	latitude 180.741810306;
};

object switch {
	status CLOSED;
	phases ACB;
	from node96212-A96212-B;
	name 96212-A;
	longitude 363.234277816;
	to node110031696212-A;
	latitude 180.741810306;
};

object underground_line {
	phases ACB;
	from node110031696212-A;
	name 1100316;
	longitude 350.702603087;
	to node95745-B1100316;
	length 554;
	latitude 124.320909665;
	configuration 1100101-LINECONFIG;
};

object switch {
	status CLOSED;
	phases ACB;
	from node95745-B1100316;
	name 95745-B;
	longitude 350.702603087;
	to node95745-A95745-B;
	latitude 124.320909665;
};

object switch {
	status CLOSED;
	phases ACB;
	from node95745-A95745-B;
	name 95745-A;
	longitude 350.702603087;
	to node110031595745-A;
	latitude 124.320909665;
};

object underground_line {
	phases ACB;
	from node110031595745-A;
	name 1100315;
	longitude 352.361207095;
	to node10789641100315;
	length 13;
	latitude 123.346268387;
	configuration 1100101-LINECONFIG;
};

object underground_line {
	phases ACB;
	from node10789641100315;
	name 1078964;
	longitude 356.968440452;
	to nodeR928911078964;
	length 30;
	latitude 125.078963992;
	configuration 1085257-LINECONFIG;
};

object fuse {
	phases ACB;
	from nodeR928911078964;
	name R92891;
	current_limit 9999.0 A;
	longitude 356.968440452;
	to node1085255R92891;
	latitude 125.078963992;
};

object underground_line {
	phases ACB;
	from node1085255R92891;
	name 1085255;
	to node10852571085255;
	longitude 390.69338862;
	length 676;
	latitude 171.428571429;
	configuration 1085257-LINECONFIG;
};

object line_configuration {
	name 1085257-LINECONFIG;
	spacing 1085257-LINESPACING;
	conductor_A 1085257-LINECONFIGunderground_line_conductor24505;
	conductor_C 1085257-LINECONFIGunderground_line_conductor24505;
	conductor_B 1085257-LINECONFIGunderground_line_conductor24505;
};

object line_spacing {
	distance_AN 0.0;
	name 1085257-LINESPACING;
	distance_CN 0.0;
	distance_BC 4.472136;
	distance_AB 4.472136;
	distance_AC 8.000000;
	distance_BN 0.0;
};

object underground_line_conductor {
	conductor_gmr 0.017;
	conductor_resistance 0.56496;
	shield_resistance 0.000000;
	neutral_gmr 0.0317574;
	neutral_strands 11;
	conductor_diameter 0.563000;
	name 1085257-LINECONFIGunderground_line_conductor24505;
	insulation_relative_permitivitty 2.4;
	outer_diameter 1.359996;
	neutral_resistance 1.2672;
	neutral_diameter 0.420036;
	shield_gmr 0.000000;
};

object underground_line {
	phases ACB;
	from node10852571085255;
	name 1085257;
	longitude 517.853029256;
	to node10852561085257;
	length 1031;
	latitude 145.221550402;
	configuration 1085257-LINECONFIG;
};

object underground_line {
	phases ACB;
	from node10852561085257;
	name 1085256;
	longitude 513.2457959;
	to node95160-B1085256;
	length 68;
	latitude 138.399061457;
	configuration 1085257-LINECONFIG;
};

object underground_line {
	phases ACB;
	from node10789641100315;
	name 1100318;
	longitude 351.992628427;
	to node96280-B1100318;
	length 10;
	latitude 123.237974912;
	configuration 1100101-LINECONFIG;
};

object switch {
	status CLOSED;
	phases ACB;
	from node96280-B1100318;
	name 96280-B;
	longitude 351.992628427;
	to node96280-A96280-B;
	latitude 123.237974912;
};

object switch {
	status CLOSED;
	phases ACB;
	from node96280-A96280-B;
	name 96280-A;
	longitude 351.992628427;
	to node110031796280-A;
	latitude 123.237974912;
};

object underground_line {
	phases ACB;
	from node110031796280-A;
	name 1100317;
	longitude 333.379405667;
	to node95644-B1100317;
	length 380;
	latitude 87.2845411064;
	configuration 1100101-LINECONFIG;
};

object switch {
	status CLOSED;
	phases ACB;
	from node95644-B1100317;
	name 95644-B;
	longitude 333.379405667;
	to node95644-A95644-B;
	latitude 87.2845411064;
};

object switch {
	status CLOSED;
	phases ACB;
	from node95644-A95644-B;
	name 95644-A;
	longitude 333.379405667;
	to node110008895644-A;
	latitude 87.2845411064;
};

object underground_line {
	phases ACB;
	from node110008895644-A;
	name 1100088;
	longitude 333.563695001;
	to node10811831100088;
	length 10;
	latitude 87.1762476311;
	configuration 1100101-LINECONFIG;
};

object underground_line {
	phases ACB;
	from node10811831100088;
	name 1081183;
	to nodeR940691081183;
	longitude 336.143745681;
	length 28;
	latitude 84.5772042234;
	configuration 1085257-LINECONFIG;
};

object fuse {
	phases ACB;
	from nodeR940691081183;
	name R94069;
	current_limit 9999.0 A;
	longitude 336.143745681;
	to node1085262R94069;
	latitude 84.5772042234;
};

object underground_line {
	phases ACB;
	from node1085262R94069;
	name 1085262;
	longitude 335.038009675;
	to node10852641085262;
	length 84.3471;
	latitude 75.4805522967;
	configuration 1085257-LINECONFIG;
};

object underground_line {
	phases ACB;
	from node10852641085262;
	name 1085264;
	longitude 440.0829302;
	to node10852631085264;
	length 697;
	latitude 92.0494540204;
	configuration 1085257-LINECONFIG;
};

object underground_line {
	phases ACB;
	from node10852631085264;
	name 1085263;
	longitude 469.200645013;
	to node94772-B1085263;
	length 294;
	latitude 77.2132479018;
	configuration 1085257-LINECONFIG;
};

object underground_line {
	phases ACB;
	from node10811831100088;
	name 1081184;
	longitude 336.880903018;
	to nodeR940701081184;
	length 41;
	latitude 91.0748127425;
	configuration 1085257-LINECONFIG;
};

object fuse {
	phases ACB;
	from nodeR940701081184;
	name R94070;
	current_limit 9999.0 A;
	longitude 336.880903018;
	to node1085258R94070;
	latitude 91.0748127425;
};

object underground_line {
	phases ACB;
	from node1085258R94070;
	name 1085258;
	longitude 356.599861783;
	to node10852591085258;
	length 399;
	latitude 106.777366664;
	configuration 1085257-LINECONFIG;
};

object underground_line {
	phases ACB;
	from node10852591085258;
	name 1085259;
	longitude 513.2457959;
	to node95160-A1085259;
	length 991;
	latitude 138.399061457;
	configuration 1085257-LINECONFIG;
};

object underground_line {
	phases ACB;
	from node10811831100088;
	name 1100099;
	to node96210-B1100099;
	longitude 333.379405667;
	length 10;
	latitude 87.0679541558;
	configuration 1100101-LINECONFIG;
};

object switch {
	status CLOSED;
	phases ACB;
	from node96210-B1100099;
	name 96210-B;
	longitude 333.379405667;
	to node96210-A96210-B;
	latitude 87.0679541558;
};

object switch {
	status CLOSED;
	phases ACB;
	from node96210-A96210-B;
	name 96210-A;
	longitude 333.379405667;
	to node110006696210-A;
	latitude 87.0679541558;
};

object underground_line {
	phases ACB;
	from node110006696210-A;
	name 1100066;
	longitude 277.355448053;
	to node95645-B1100066;
	length 839;
	latitude 5.73955419188;
	configuration 1100101-LINECONFIG;
};

object switch {
	status CLOSED;
	phases ACB;
	from node95645-B1100066;
	name 95645-B;
	longitude 277.355448053;
	to node95645-A95645-B;
	latitude 5.73955419188;
};

object switch {
	status CLOSED;
	phases ACB;
	from node95645-A95645-B;
	name 95645-A;
	longitude 277.355448053;
	to node110006595645-A;
	latitude 5.73955419188;
};

object underground_line {
	phases ACB;
	from node110006595645-A;
	name 1100065;
	longitude 277.724026722;
	to node10789481100065;
	length 10;
	latitude 5.52296724124;
	configuration 1100101-LINECONFIG;
};

object underground_line {
	phases ACB;
	from node10789481100065;
	name 1078948;
	longitude 284.727021424;
	to nodeR928841078948;
	length 43;
	latitude 7.03907589568;
	configuration 1085257-LINECONFIG;
};

object fuse {
	phases ACB;
	from nodeR928841078948;
	name R92884;
	current_limit 9999.0 A;
	longitude 284.727021424;
	to node1085269R92884;
	latitude 7.03907589568;
};

object underground_line {
	phases ACB;
	from node1085269R92884;
	name 1085269;
	longitude 342.225293711;
	to node10852701085269;
	length 480;
	latitude 0.0;
	configuration 1085257-LINECONFIG;
};

object underground_line {
	phases ACB;
	from node10852701085269;
	name 1085270;
	longitude 469.753513015;
	to node10852681085270;
	length 1191;
	latitude 69.8492915802;
	configuration 1085257-LINECONFIG;
};

object underground_line {
	phases ACB;
	from node10852681085270;
	name 1085268;
	longitude 469.200645013;
	to node94772-A1085268;
	length 69;
	latitude 77.2132479018;
	configuration 1085257-LINECONFIG;
};

object line_configuration {
	name 1100101-LINECONFIG;
	spacing 1085257-LINESPACING;
	conductor_A 1100101-LINECONFIGunderground_line_conductor30004;
	conductor_C 1100101-LINECONFIGunderground_line_conductor30004;
	conductor_B 1100101-LINECONFIGunderground_line_conductor30004;
};

object underground_line_conductor {
	conductor_gmr 0.025;
	conductor_resistance 0.25344;
	shield_resistance 0.000000;
	neutral_gmr 0.0317574;
	neutral_strands 25;
	conductor_diameter 0.880000;
	name 1100101-LINECONFIGunderground_line_conductor30004;
	insulation_relative_permitivitty 2.4;
	outer_diameter 1.650000;
	neutral_resistance 0.53328;
	neutral_diameter 0.420000;
	shield_gmr 0.000000;
};

object underground_line {
	phases ACB;
	from node10789481100065;
	name 1100101;
	to node96211-B1100101;
	longitude 277.355448053;
	length 10;
	latitude 5.3063802906;
	configuration 1100101-LINECONFIG;
};

object switch {
	status CLOSED;
	phases ACB;
	from node96211-B1100101;
	name 96211-B;
	longitude 277.355448053;
	to node96211-A96211-B;
	latitude 5.3063802906;
};

object switch {
	status CLOSED;
	phases ACB;
	from node96211-A96211-B;
	name 96211-A;
	longitude 277.355448053;
	to node110010096211-A;
	latitude 5.3063802906;
};

object underground_line {
	phases ACB;
	from node110010096211-A;
	name 1100100;
	longitude 272.563925363;
	to node94958-B1100100;
	length 33;
	latitude 3.14051078423;
	configuration 1100101-LINECONFIG;
};

object underground_line {
	phases ACB;
	from node10808471100102;
	name 1126621;
	longitude 365.077171159;
	to node101704-B1126621;
	length 19;
	latitude 178.900821226;
	configuration 1100101-LINECONFIG;
};

object underground_line {
	phases ACB;
	from ARBOR LAKE;
	name 1069652;
	longitude 176.364892882;
	to nodeF956181069652;
	length 22;
	latitude 617.056222363;
	configuration 1151929-LINECONFIG;
};

object fuse {
	phases ACB;
	from nodeF956181069652;
	name F95618;
	current_limit 9999.0 A;
	longitude 176.364892882;
	to node1077550F95618;
	latitude 617.056222363;
};

object underground_line {
	phases ACB;
	from node1077550F95618;
	name 1077550;
	longitude 176.364892882;
	to node11004761077550;
	length 10;
	latitude 616.298168035;
	configuration 1151929-LINECONFIG;
};

object underground_line {
	phases ACB;
	from node11004761077550;
	name 1100476;
	longitude 196.268140981;
	to node95880-B1100476;
	length 308;
	latitude 627.452395993;
	configuration 1151929-LINECONFIG;
};

object switch {
	status CLOSED;
	phases ACB;
	from node95880-B1100476;
	name 95880-B;
	longitude 196.268140981;
	to node95880-A95880-B;
	latitude 627.452395993;
};

object switch {
	status CLOSED;
	phases ACB;
	from node95880-A95880-B;
	name 95880-A;
	longitude 196.268140981;
	to node110048695880-A;
	latitude 627.452395993;
};

object underground_line {
	phases ACB;
	from node110048695880-A;
	name 1100486;
	longitude 197.005298318;
	to node10740431100486;
	length 10;
	latitude 627.668982944;
	configuration 1151929-LINECONFIG;
};

object underground_line {
	phases ACB;
	from node10740431100486;
	name 1074043;
	longitude 197.742455655;
	to node94914-B1074043;
	length 24;
	latitude 625.178233011;
	configuration 1151929-LINECONFIG;
};

object underground_line {
	phases ACB;
	from node10740431100486;
	name 1100487;
	to node96359-B1100487;
	longitude 197.373876987;
	length 10;
	latitude 627.885569894;
	configuration 1151929-LINECONFIG;
};

object underground_line {
	phases ACB;
	from node10740431100486;
	name 1151990;
	longitude 195.530983644;
	to node102527-B1151990;
	length 10;
	latitude 627.99386337;
	configuration 1151929-LINECONFIG;
};

object switch {
	status CLOSED;
	phases ACB;
	from node102527-B1151990;
	name 102527-B;
	longitude 195.530983644;
	to node102527-A102527-B;
	latitude 627.99386337;
};

object switch {
	status CLOSED;
	phases ACB;
	from node102527-A102527-B;
	name 102527-A;
	longitude 195.530983644;
	to node1151998102527-A;
	latitude 627.99386337;
};

object underground_line {
	phases ACB;
	from node1151998102527-A;
	name 1151998;
	longitude 393.457728634;
	to node11007941151998;
	length 5486;
	latitude 1088.67430737;
	configuration 1151929-LINECONFIG;
};

object underground_line {
	phases ACB;
	from node11007941151998;
	name 1100794;
	longitude 573.876986869;
	to node102531-B1100794;
	length 1040;
	latitude 1056.0779713;
	configuration 1151929-LINECONFIG;
};

object switch {
	status CLOSED;
	phases ACB;
	from node102531-B1100794;
	name 102531-B;
	longitude 573.876986869;
	to node102531-A102531-B;
	latitude 1056.0779713;
};

object switch {
	status CLOSED;
	phases ACB;
	from node102531-A102531-B;
	name 102531-A;
	longitude 573.876986869;
	to node1151928102531-A;
	latitude 1056.0779713;
};

object underground_line {
	phases ACB;
	from node1151928102531-A;
	name 1151928;
	longitude 574.798433541;
	to node11519291151928;
	length 10;
	latitude 1056.61943868;
	configuration 1151929-LINECONFIG;
};

object line_configuration {
	name 1151929-LINECONFIG;
	conductor_A 1077542-LINECONFIGunderground_line_conductor58704;
	spacing 1085257-LINESPACING;
	conductor_C 1077542-LINECONFIGunderground_line_conductor58704;
	conductor_B 1077542-LINECONFIGunderground_line_conductor58704;
};

object underground_line {
	phases ACB;
	from node11519291151928;
	name 1151929;
	longitude 575.719880212;
	to node102519-B1151929;
	length 18;
	latitude 1054.7784496;
	configuration 1151929-LINECONFIG;
};

object switch {
	status CLOSED;
	phases ACB;
	from node102519-B1151929;
	name 102519-B;
	longitude 575.719880212;
	to node102519-A102519-B;
	latitude 1054.7784496;
};

object switch {
	status CLOSED;
	phases ACB;
	from node102519-A102519-B;
	name 102519-A;
	longitude 575.719880212;
	to node1151941102519-A;
	latitude 1054.7784496;
};

object underground_line {
	phases ACB;
	from node1151941102519-A;
	name 1151941;
	longitude 583.275742916;
	to node95987-B1151941;
	length 125;
	latitude 1064.74144933;
	configuration 1151929-LINECONFIG;
};

object switch {
	status CLOSED;
	phases ACB;
	from node95987-B1151941;
	name 95987-B;
	longitude 583.275742916;
	to node95987-A95987-B;
	latitude 1064.74144933;
};

object switch {
	status CLOSED;
	phases ACB;
	from node95987-A95987-B;
	name 95987-A;
	longitude 583.275742916;
	to node115193095987-A;
	latitude 1064.74144933;
};

object underground_line {
	phases ACB;
	from node115193095987-A;
	name 1151930;
	to node10995851151930;
	longitude 583.275742916;
	length 12;
	latitude 1066.04097103;
	configuration 1151929-LINECONFIG;
};

object underground_line {
	phases ACB;
	from node10995851151930;
	name 1099585;
	longitude 583.275742916;
	to node100703-B1099585;
	length 12;
	latitude 1067.34049274;
	configuration 1151929-LINECONFIG;
};

object switch {
	status CLOSED;
	phases ACB;
	from node100703-B1099585;
	name 100703-B;
	longitude 583.275742916;
	to node100703-A100703-B;
	latitude 1067.34049274;
};

object switch {
	status CLOSED;
	phases ACB;
	from node100703-A100703-B;
	name 100703-A;
	longitude 583.275742916;
	to node1106217100703-A;
	latitude 1067.34049274;
};

object underground_line {
	phases ACB;
	from node1106217100703-A;
	name 1106217;
	longitude 583.460032251;
	to node10955541106217;
	length 32;
	latitude 1070.69759047;
	configuration 1085257-LINECONFIG;
};

object underground_line {
	phases ACB;
	from node10955541106217;
	name 1095554;
	longitude 593.964524303;
	to node10955551095554;
	length 57;
	latitude 1070.15612309;
	configuration 1085257-LINECONFIG;
};

object underground_line {
	phases ACB;
	from node10955541106217;
	name 1106218;
	to node11062161106218;
	longitude 594.70168164;
	length 70;
	latitude 1067.66537316;
	configuration 1085257-LINECONFIG;
};

object underground_line {
	phases ACB;
	from node10955541106217;
	name 1106221;
	longitude 594.333102972;
	to node11062141106221;
	length 62;
	latitude 1068.85660139;
	configuration 1085257-LINECONFIG;
};

object underground_line {
	phases ACB;
	from node10955541106217;
	name 1106222;
	longitude 594.333102972;
	to node11062151106222;
	length 61;
	latitude 1071.99711217;
	configuration 1085257-LINECONFIG;
};

object underground_line {
	phases ACB;
	from node10955541106217;
	name 1106223;
	longitude 594.333102972;
	to node11062201106223;
	length 66;
	latitude 1073.1883404;
	configuration 1085257-LINECONFIG;
};

object underground_line {
	phases ACB;
	from node10995851151930;
	name 1100119;
	longitude 589.357290947;
	to node102514-B1100119;
	length 516;
	latitude 1097.01290497;
	configuration 1151929-LINECONFIG;
};

object switch {
	status CLOSED;
	phases ACB;
	from node102514-B1100119;
	name 102514-B;
	longitude 589.357290947;
	to node102514-A102514-B;
	latitude 1097.01290497;
};

object switch {
	status CLOSED;
	phases ACB;
	from node102514-A102514-B;
	name 102514-A;
	longitude 589.357290947;
	to node1151936102514-A;
	latitude 1097.01290497;
};

object underground_line {
	phases ACB;
	from node1151936102514-A;
	name 1151936;
	longitude 587.882976273;
	to node10808351151936;
	length 13;
	latitude 1098.09583973;
	configuration 1151929-LINECONFIG;
};

object underground_line {
	phases ACB;
	from node10808351151936;
	name 1080835;
	to nodeD938651080835;
	longitude 589.91015895;
	length 16;
	latitude 1099.5036549;
	configuration 1085257-LINECONFIG;
};

object fuse {
	phases ACB;
	from nodeD938651080835;
	name D93865;
	current_limit 9999.0 A;
	longitude 589.91015895;
	to node1080834D93865;
	latitude 1099.5036549;
};

object underground_line {
	phases ACB;
	from node10808351151936;
	name 1100118;
	longitude 588.435844276;
	to node95653-B1100118;
	length 10;
	latitude 1097.7709593;
	configuration 1085257-LINECONFIG;
};

object switch {
	status CLOSED;
	phases ACB;
	from node95653-B1100118;
	name 95653-B;
	longitude 588.435844276;
	to node95653-A95653-B;
	latitude 1097.7709593;
};

object switch {
	status CLOSED;
	phases ACB;
	from node95653-A95653-B;
	name 95653-A;
	longitude 588.435844276;
	to node115193195653-A;
	latitude 1097.7709593;
};

object underground_line {
	phases ACB;
	from node115193195653-A;
	name 1151931;
	longitude 588.988712278;
	to node102529-B1151931;
	length 145;
	latitude 1090.51529645;
	configuration 1151929-LINECONFIG;
};

object switch {
	status CLOSED;
	phases ACB;
	from node102529-B1151931;
	name 102529-B;
	longitude 588.988712278;
	to node102529-A102529-B;
	latitude 1090.51529645;
};

object switch {
	status CLOSED;
	phases ACB;
	from node102529-A102529-B;
	name 102529-A;
	longitude 588.988712278;
	to node1151940102529-A;
	latitude 1090.51529645;
};

object underground_line {
	phases ACB;
	from node1151940102529-A;
	name 1151940;
	longitude 588.435844276;
	to node10741261151940;
	length 10;
	latitude 1089.54065518;
	configuration 1151929-LINECONFIG;
};

object underground_line {
	phases ACB;
	from node10741261151940;
	name 1074126;
	longitude 586.592950933;
	to node95141-B1074126;
	length 25;
	latitude 1091.59823121;
	configuration 1100101-LINECONFIG;
};

object underground_line {
	phases ACB;
	from node10741261151940;
	name 1151932;
	longitude 586.408661599;
	to node102523-B1151932;
	length 13;
	latitude 1088.67430737;
	configuration 1151929-LINECONFIG;
};

object underground_line {
	phases ACB;
	from node10808351151936;
	name 1100120;
	longitude 587.514397604;
	to node96218-B1100120;
	length 10;
	latitude 1098.42072015;
	configuration 1100101-LINECONFIG;
};

object switch {
	status CLOSED;
	phases ACB;
	from node96218-B1100120;
	name 96218-B;
	longitude 587.514397604;
	to node96218-A96218-B;
	latitude 1098.42072015;
};

object switch {
	status CLOSED;
	phases ACB;
	from node96218-A96218-B;
	name 96218-A;
	longitude 587.514397604;
	to node110007596218-A;
	latitude 1098.42072015;
};

object underground_line {
	phases ACB;
	from node110007596218-A;
	name 1100075;
	longitude 587.882976273;
	to node95654-B1100075;
	length 232;
	latitude 1122.89504557;
	configuration 1100101-LINECONFIG;
};

object switch {
	status CLOSED;
	phases ACB;
	from node95654-B1100075;
	name 95654-B;
	longitude 587.882976273;
	to node95654-A95654-B;
	latitude 1122.89504557;
};

object switch {
	status CLOSED;
	phases ACB;
	from node95654-A95654-B;
	name 95654-A;
	longitude 587.882976273;
	to node110006995654-A;
	latitude 1122.89504557;
};

object underground_line {
	phases ACB;
	from node110006995654-A;
	name 1100069;
	longitude 588.067265607;
	to node10808321100069;
	length 10;
	latitude 1123.219926;
	configuration 1100101-LINECONFIG;
};

object underground_line {
	phases ACB;
	from node10808321100069;
	name 1080832;
	longitude 590.278737618;
	to nodeD938641080832;
	length 27;
	latitude 1125.81896941;
	configuration 1085257-LINECONFIG;
};

object fuse {
	phases ACB;
	from nodeD938641080832;
	name D93864;
	current_limit 9999.0 A;
	longitude 590.278737618;
	to node1080833D93864;
	latitude 1125.81896941;
};

object underground_line {
	phases ACB;
	from node10808321100069;
	name 1100077;
	to node96219-B1100077;
	longitude 587.882976273;
	length 10;
	latitude 1123.54480643;
	configuration 1100101-LINECONFIG;
};

object switch {
	status CLOSED;
	phases ACB;
	from node96219-B1100077;
	name 96219-B;
	longitude 587.882976273;
	to node96219-A96219-B;
	latitude 1123.54480643;
};

object switch {
	status CLOSED;
	phases ACB;
	from node96219-A96219-B;
	name 96219-A;
	longitude 587.882976273;
	to node110029596219-A;
	latitude 1123.54480643;
};

object underground_line {
	phases ACB;
	from node110029596219-A;
	name 1100295;
	longitude 578.484220226;
	to node95720-B1100295;
	length 596;
	latitude 1181.91498962;
	configuration 1100101-LINECONFIG;
};

object switch {
	status CLOSED;
	phases ACB;
	from node95720-B1100295;
	name 95720-B;
	longitude 578.484220226;
	to node95720-A95720-B;
	latitude 1181.91498962;
};

object switch {
	status CLOSED;
	phases ACB;
	from node95720-A95720-B;
	name 95720-A;
	longitude 578.484220226;
	to node110029495720-A;
	latitude 1181.91498962;
};

object underground_line {
	phases ACB;
	from node110029495720-A;
	name 1100294;
	longitude 578.852798894;
	to node10808301100294;
	length 10;
	latitude 1182.23987005;
	configuration 1100101-LINECONFIG;
};

object underground_line {
	phases ACB;
	from node10808301100294;
	name 1080830;
	longitude 581.801428242;
	to nodeD988011080830;
	length 20;
	latitude 1183.10621785;
	configuration 1085257-LINECONFIG;
};

object fuse {
	phases ACB;
	from nodeD988011080830;
	name D98801;
	current_limit 9999.0 A;
	longitude 581.801428242;
	to node1080829D98801;
	latitude 1183.10621785;
};

object underground_line {
	phases ACB;
	from node10808301100294;
	name 1100298;
	longitude 578.299930892;
	to node96266-B1100298;
	length 10;
	latitude 1182.456457;
	configuration 1100101-LINECONFIG;
};

object switch {
	status CLOSED;
	phases ACB;
	from node96266-B1100298;
	name 96266-B;
	longitude 578.299930892;
	to node96266-A96266-B;
	latitude 1182.456457;
};

object switch {
	status CLOSED;
	phases ACB;
	from node96266-A96266-B;
	name 96266-A;
	longitude 578.299930892;
	to node110048896266-A;
	latitude 1182.456457;
};

object underground_line {
	phases ACB;
	from node110048896266-A;
	name 1100488;
	longitude 794.839898641;
	to node95832-B1100488;
	length 1279;
	latitude 1183.7559787;
	configuration 1100101-LINECONFIG;
};

object switch {
	status CLOSED;
	phases ACB;
	from node95832-B1100488;
	name 95832-B;
	longitude 794.839898641;
	to node95832-A95832-B;
	latitude 1183.7559787;
};

object switch {
	status CLOSED;
	phases ACB;
	from node95832-A95832-B;
	name 95832-A;
	longitude 794.839898641;
	to node110047395832-A;
	latitude 1183.7559787;
};

object underground_line {
	phases ACB;
	from node110047395832-A;
	name 1100473;
	to node10752211100473;
	longitude 795.024187975;
	length 10;
	latitude 1183.53939175;
	configuration 1100101-LINECONFIG;
};

object underground_line {
	phases ACB;
	from node10752211100473;
	name 1075221;
	longitude 797.41994932;
	to node94568-A1075221;
	length 19;
	latitude 1184.94720693;
	configuration 1100101-LINECONFIG;
};

object underground_line {
	phases ACB;
	from node10752211100473;
	name 1078945;
	longitude 800.0;
	to nodeD928821078945;
	length 37;
	latitude 1180.72376139;
	configuration 1085257-LINECONFIG;
};

object fuse {
	phases ACB;
	from nodeD928821078945;
	name D92882;
	current_limit 9999.0 A;
	longitude 800.0;
	to node1078946D92882;
	latitude 1180.72376139;
};

object underground_line {
	phases ACB;
	from node1078946D92882;
	name 1078946;
	longitude 666.943100668;
	to node4356661078946;
	length 968;
	latitude 1161.55581626;
	configuration 1085257-LINECONFIG;
};

object underground_line {
	phases ACB;
	from node10752211100473;
	name 1153296;
	to node102688-A1153296;
	longitude 791.891269293;
	length 19;
	latitude 1182.78133742;
	configuration 1100101-LINECONFIG;
};

object underground_line {
	phases ACB;
	from node10808321100069;
	name 1104914;
	longitude 589.357290947;
	to nodeR989411104914;
	length 20;
	latitude 1121.27064344;
	configuration 1085257-LINECONFIG;
};

object fuse {
	phases ACB;
	from nodeR989411104914;
	name R98941;
	current_limit 9999.0 A;
	longitude 589.357290947;
	to node1104918R98941;
	latitude 1121.27064344;
};

object underground_line {
	phases ACB;
	from node1104918R98941;
	name 1104918;
	longitude 671.550334024;
	to node4479211104918;
	length 781;
	latitude 1117.26378486;
	configuration 1085257-LINECONFIG;
};

object underground_line {
	phases ACB;
	from node11519291151928;
	name 1151934;
	longitude 572.58696153;
	to node102515-B1151934;
	length 12;
	latitude 1056.72773215;
	configuration 1151929-LINECONFIG;
};

object switch {
	status CLOSED;
	phases ACB;
	from node102515-B1151934;
	name 102515-B;
	longitude 572.58696153;
	to node102515-A102515-B;
	latitude 1056.72773215;
};

object switch {
	status CLOSED;
	phases ACB;
	from node102515-A102515-B;
	name 102515-A;
	longitude 572.58696153;
	to node1151933102515-A;
	latitude 1056.72773215;
};

object underground_line {
	phases ACB;
	from node1151933102515-A;
	name 1151933;
	longitude 586.408661599;
	to node102523-A1151933;
	length 357;
	latitude 1088.67430737;
	configuration 1151929-LINECONFIG;
};

object underground_line {
	phases ACB;
	from node11519291151928;
	name 1151984;
	longitude 581.801428242;
	to node102526-A1151984;
	length 41;
	latitude 1058.24384081;
	configuration 1151929-LINECONFIG;
};

object underground_line {
	phases ACB;
	from ARBOR LAKE;
	name 1069653;
	longitude 177.654918222;
	to nodeF956191069653;
	length 27;
	latitude 617.056222363;
	configuration 1151929-LINECONFIG;
};

object fuse {
	phases ACB;
	from nodeF956191069653;
	name F95619;
	current_limit 9999.0 A;
	longitude 177.654918222;
	to node1077552F95619;
	latitude 617.056222363;
};

object underground_line {
	phases ACB;
	from node1077552F95619;
	name 1077552;
	longitude 177.654918222;
	to node11004581077552;
	length 10;
	latitude 616.298168035;
	configuration 1151929-LINECONFIG;
};

object underground_line {
	phases ACB;
	from node11004581077552;
	name 1100458;
	to node95879-B1100458;
	longitude 196.083851647;
	length 342;
	latitude 633.08365671;
	configuration 1151929-LINECONFIG;
};

object switch {
	status CLOSED;
	phases ACB;
	from node95879-B1100458;
	name 95879-B;
	longitude 196.083851647;
	to node95879-A95879-B;
	latitude 633.08365671;
};

object switch {
	status CLOSED;
	phases ACB;
	from node95879-A95879-B;
	name 95879-A;
	longitude 196.083851647;
	to node110045995879-A;
	latitude 633.08365671;
};

object underground_line {
	phases ACB;
	from node110045995879-A;
	name 1100459;
	longitude 196.452430316;
	to node10751311100459;
	length 10;
	latitude 632.867069759;
	configuration 1151929-LINECONFIG;
};

object underground_line {
	phases ACB;
	from node10751311100459;
	name 1075131;
	longitude 195.34669431;
	to node94913-B1075131;
	length 29;
	latitude 630.159732876;
	configuration 1151929-LINECONFIG;
};

object switch {
	status CLOSED;
	phases ACB;
	from node94913-B1075131;
	name 94913-B;
	longitude 195.34669431;
	to node94913-A94913-B;
	latitude 630.159732876;
};

object switch {
	status CLOSED;
	phases ACB;
	from node94913-A94913-B;
	name 94913-A;
	longitude 195.34669431;
	to node107404294913-A;
	latitude 630.159732876;
};

object underground_line {
	phases ACB;
	from node107404294913-A;
	name 1074042;
	longitude 198.663902327;
	to node11004921074042;
	length 25;
	latitude 628.318743796;
	configuration 1151929-LINECONFIG;
};

object underground_line {
	phases ACB;
	from node11004921074042;
	name 1100492;
	to node95904-B1100492;
	longitude 325.823542962;
	length 3416;
	latitude 920.81942063;
	configuration 1151929-LINECONFIG;
};

object switch {
	status CLOSED;
	phases ACB;
	from node95904-B1100492;
	name 95904-B;
	longitude 325.823542962;
	to node95904-A95904-B;
	latitude 920.81942063;
};

object switch {
	status CLOSED;
	phases ACB;
	from node95904-A95904-B;
	name 95904-A;
	longitude 325.823542962;
	to node110069995904-A;
	latitude 920.81942063;
};

object underground_line {
	phases ACB;
	from node110069995904-A;
	name 1100699;
	longitude 367.28864317;
	to node95905-B1100699;
	length 1896;
	latitude 1101.23635051;
	configuration 1151929-LINECONFIG;
};

object switch {
	status CLOSED;
	phases ACB;
	from node95905-B1100699;
	name 95905-B;
	longitude 367.28864317;
	to node95905-A95905-B;
	latitude 1101.23635051;
};

object switch {
	status CLOSED;
	phases ACB;
	from node95905-A95905-B;
	name 95905-A;
	longitude 367.28864317;
	to node110070095905-A;
	latitude 1101.23635051;
};

object underground_line {
	phases ACB;
	from node110070095905-A;
	name 1100700;
	longitude 367.841511173;
	to node10752441100700;
	length 10;
	latitude 1101.45293746;
	configuration 1151929-LINECONFIG;
};

object underground_line {
	phases ACB;
	from node10752441100700;
	name 1075244;
	longitude 357.889887123;
	to node94562-B1075244;
	length 70;
	latitude 1104.59344824;
	configuration 1151929-LINECONFIG;
};

object underground_line {
	phases ACB;
	from node10752441100700;
	name 1100701;
	longitude 368.210089841;
	to node96389-B1100701;
	length 10;
	latitude 1101.23635051;
	configuration 1151929-LINECONFIG;
};

object switch {
	status CLOSED;
	phases ACB;
	from node96389-B1100701;
	name 96389-B;
	longitude 368.210089841;
	to node96389-A96389-B;
	latitude 1101.23635051;
};

object switch {
	status CLOSED;
	phases ACB;
	from node96389-A96389-B;
	name 96389-A;
	longitude 368.210089841;
	to node110079196389-A;
	latitude 1101.23635051;
};

object underground_line {
	phases ACB;
	from node110079196389-A;
	name 1100791;
	longitude 397.880672656;
	to node95970-B1100791;
	length 215;
	latitude 1092.03140511;
	configuration 1151929-LINECONFIG;
};

object switch {
	status CLOSED;
	phases ACB;
	from node95970-B1100791;
	name 95970-B;
	longitude 397.880672656;
	to node95970-A95970-B;
	latitude 1092.03140511;
};

object switch {
	status CLOSED;
	phases ACB;
	from node95970-A95970-B;
	name 95970-A;
	longitude 397.880672656;
	to node110079295970-A;
	latitude 1092.03140511;
};

object underground_line {
	phases ACB;
	from node110079295970-A;
	name 1100792;
	longitude 400.276434001;
	to node10789431100792;
	length 20;
	latitude 1090.40700298;
	configuration 1151929-LINECONFIG;
};

object underground_line {
	phases ACB;
	from node10789431100792;
	name 1078943;
	to nodeR928811078943;
	longitude 406.7265607;
	length 38;
	latitude 1088.67430737;
	configuration 1085257-LINECONFIG;
};

object fuse {
	phases ACB;
	from nodeR928811078943;
	name R92881;
	current_limit 9999.0 A;
	longitude 406.7265607;
	to node1078944R92881;
	latitude 1088.67430737;
};

object underground_line {
	phases ACB;
	from node1078944R92881;
	name 1078944;
	longitude 464.040543654;
	to node10849791078944;
	length 700;
	latitude 1121.05405649;
	configuration 1085257-LINECONFIG;
};

object underground_line {
	phases ACB;
	from node10849791078944;
	name 1084979;
	longitude 529.647546648;
	to node102517-B1084979;
	length 787;
	latitude 1149.21036008;
	configuration 1085257-LINECONFIG;
};

object underground_line {
	phases ACB;
	from node10789431100792;
	name 1100789;
	longitude 405.805114029;
	to nodeR963971100789;
	length 67;
	latitude 1095.92997022;
	configuration 1094591-LINECONFIG;
};

object fuse {
	phases ACB;
	from nodeR963971100789;
	name R96397;
	current_limit 9999.0 A;
	longitude 405.805114029;
	to node1100790R96397;
	latitude 1095.92997022;
};

object underground_line {
	phases ACB;
	from node10752441100700;
	name 1100703;
	longitude 368.394379175;
	to node96364-B1100703;
	length 10;
	latitude 1101.77781789;
	configuration 1100101-LINECONFIG;
};

object switch {
	status CLOSED;
	phases ACB;
	from node96364-B1100703;
	name 96364-B;
	longitude 368.394379175;
	to node96364-A96364-B;
	latitude 1101.77781789;
};

object switch {
	status CLOSED;
	phases ACB;
	from node96364-A96364-B;
	name 96364-A;
	longitude 368.394379175;
	to node110438196364-A;
	latitude 1101.77781789;
};

object underground_line {
	phases ACB;
	from node110438196364-A;
	name 1104381;
	longitude 580.511402903;
	to node98643-B1104381;
	length 1510;
	latitude 1198.59218482;
	configuration 1100101-LINECONFIG;
};

object switch {
	status CLOSED;
	phases ACB;
	from node98643-B1104381;
	name 98643-B;
	longitude 580.511402903;
	to node98643-A98643-B;
	latitude 1198.59218482;
};

object switch {
	status CLOSED;
	phases ACB;
	from node98643-A98643-B;
	name 98643-A;
	longitude 580.511402903;
	to node110438298643-A;
	latitude 1198.59218482;
};

object underground_line {
	phases ACB;
	from node110438298643-A;
	name 1104382;
	longitude 580.879981571;
	to node11043771104382;
	length 10;
	latitude 1198.37559787;
	configuration 1100101-LINECONFIG;
};

object underground_line {
	phases ACB;
	from node11043771104382;
	name 1104377;
	longitude 587.33010827;
	to node98641-B1104377;
	length 38;
	latitude 1196.96778269;
	configuration 1151929-LINECONFIG;
};

object switch {
	status CLOSED;
	phases ACB;
	from node98641-B1104377;
	name 98641-B;
	longitude 587.33010827;
	to node98641-A98641-B;
	latitude 1196.96778269;
};

object switch {
	status CLOSED;
	phases ACB;
	from node98641-A98641-B;
	name 98641-A;
	longitude 587.33010827;
	to node110437698641-A;
	latitude 1196.96778269;
};

object underground_line {
	phases ACB;
	from node110437698641-A;
	name 1104376;
	longitude 797.41994932;
	to node94568-B1104376;
	length 1185;
	latitude 1184.94720693;
	configuration 1151929-LINECONFIG;
};

object underground_line {
	phases ACB;
	from node11043771104382;
	name 1104379;
	longitude 579.9585349;
	to node98642-B1104379;
	length 10;
	latitude 1197.72583702;
	configuration 1100101-LINECONFIG;
};

object switch {
	status CLOSED;
	phases ACB;
	from node98642-B1104379;
	name 98642-B;
	longitude 579.9585349;
	to node98642-A98642-B;
	latitude 1197.72583702;
};

object switch {
	status CLOSED;
	phases ACB;
	from node98642-A98642-B;
	name 98642-A;
	longitude 579.9585349;
	to node110438098642-A;
	latitude 1197.72583702;
};

object underground_line {
	phases ACB;
	from node110438098642-A;
	name 1104380;
	longitude 565.583966828;
	to node11043781104380;
	length 164;
	latitude 1182.34816352;
	configuration 1100101-LINECONFIG;
};

object underground_line {
	phases ACB;
	from node11043781104380;
	name 1104378;
	longitude 586.592950933;
	to node95141-A1104378;
	length 923;
	latitude 1091.59823121;
	configuration 1100101-LINECONFIG;
};

object underground_line {
	phases ACB;
	from node11043771104382;
	name 1151937;
	longitude 583.644321585;
	to nodeR1025081151937;
	length 22;
	latitude 1200.0;
	configuration 1094591-LINECONFIG;
};

object fuse {
	phases ACB;
	from nodeR1025081151937;
	name R102508;
	current_limit 9999.0 A;
	longitude 583.644321585;
	to node1151938R102508;
	latitude 1200.0;
};

object underground_line {
	phases ACB;
	from node1151938R102508;
	name 1151938;
	longitude 577.194194886;
	to node10733521151938;
	length 300;
	latitude 1171.30222904;
	configuration 1094591-LINECONFIG;
};

object underground_line {
	phases C;
	from node10733521151938;
	name 1073352;
	to node4305981073352;
	longitude 564.478230822;
	length 68;
	latitude 1170.97734861;
	configuration 1126616-LINECONFIG;
};

object underground_line {
	phases ACB;
	from node10733521151938;
	name 1099587;
	longitude 563.556784151;
	to node10849781099587;
	length 658;
	latitude 1107.51737208;
	configuration 1085257-LINECONFIG;
};

object underground_line {
	phases ACB;
	from node10849781099587;
	name 1084978;
	longitude 530.384703985;
	to node11519391084978;
	length 699;
	latitude 1154.40844689;
	configuration 1085257-LINECONFIG;
};

object underground_line {
	phases ACB;
	from node11519391084978;
	name 1151939;
	longitude 529.647546648;
	to node102517-A1151939;
	length 48;
	latitude 1149.21036008;
	configuration 1085257-LINECONFIG;
};

object underground_line {
	phases ACB;
	from node11004921074042;
	name 1151935;
	to node96359-A1151935;
	longitude 197.373876987;
	length 10;
	latitude 627.885569894;
	configuration 1151929-LINECONFIG;
};

object underground_line {
	phases ACB;
	from node10751311100459;
	name 1081185;
	longitude 197.373876987;
	to nodeR940711081185;
	length 12;
	latitude 634.058297988;
	configuration 1085257-LINECONFIG;
};

object fuse {
	phases ACB;
	from nodeR940711081185;
	name R94071;
	current_limit 9999.0 A;
	longitude 197.373876987;
	to node1081186R94071;
	latitude 634.058297988;
};

object underground_line {
	phases ACB;
	from node1081186R94071;
	name 1081186;
	longitude 193.503800968;
	to node10757441081186;
	length 36;
	latitude 636.54904792;
	configuration 1085257-LINECONFIG;
};

object line_configuration {
	name 1075744-LINECONFIG;
	spacing 1085565-LINESPACING;
	conductor_A 1085257-LINECONFIGunderground_line_conductor24505;
};

object underground_line {
	phases A;
	from node10757441081186;
	name 1075744;
	longitude 193.688090302;
	to node95123-B1075744;
	length 26;
	latitude 639.364678278;
	configuration 1075744-LINECONFIG;
};

object underground_line {
	phases ACB;
	from node10757441081186;
	name 1102056;
	longitude 191.476618291;
	to node4458011102056;
	length 11;
	latitude 636.54904792;
	configuration 1094591-LINECONFIG;
};

object underground_line {
	phases ACB;
...